/*--------------------------------*- C++ -*----------------------------------*\
| =========                 |                                                 |
| \\      /  F ield         | OpenFOAM: The Open Source CFD Toolbox           |
|  \\    /   O peration     | Version:  2.3.1                                 |
|   \\  /    A nd           | Web:      www.OpenFOAM.org                      |
|    \\/     M anipulation  |                                                 |
\*---------------------------------------------------------------------------*/
FoamFile
{
    version     2.0;
    format      ascii;
    class       dictionary;
    object      blockMeshDict;
}
// * * * * * * * * * * * * * * * * * * * * * * * * * * * * * * * * * * * * * //

convertToMeters 0.1;

vertices
(
    (0 0 0)
    (0 84.9790 -1.8540)
    (0 84.9790 1.8540)
    (2000 0 0)
    (2000 84.9790 -1.8540)
    (2000 84.9790 1.8540)
 
);

blocks
(
    hex (0 1 2 0 3 4 5 3) (50 1 100) simpleGrading (0.1 1 10)
);

edges
(
  arc 1 2 (0 85 0)
  arc 4 5 (2000 85 0)
);

boundary
(
    axis
    {
        type empty;
        faces
        (
            (0 3 3 0)
        );
    }

    inlet
    {
        type patch;
        faces
        (
            (0 0 2 1)
      
          );
       
    }
    wall
    {
        type wall;
        faces
        (
            (2 5 4 1)
       
        );
    }
    outlet
      {
          type patch;
          faces
          (
              (3 4 5 3)
       
          );
}
    front     
      {
          type wedge;
          faces
          (
              (0 3 5 2)
       
          );
      }

    back
      {
          type wedge;
          faces
          (
              (0 1 4 3)
       
          );
      }
);

mergePatchPairs
(
);

