/*--------------------------------*- C++ -*----------------------------------*\
| =========                 |                                                 |
| \\      /  F ield         | OpenFOAM: The Open Source CFD Toolbox           |
|  \\    /   O peration     | Version:  5.x                                   |
|   \\  /    A nd           | Web:      www.OpenFOAM.org                      |
|    \\/     M anipulation  |                                                 |
\*---------------------------------------------------------------------------*/
FoamFile
{
    version     2.0;
    format      ascii;
    class       polyBoundaryMesh;
    location    "constant/polyMesh";
    object      boundary;
}
// * * * * * * * * * * * * * * * * * * * * * * * * * * * * * * * * * * * * * //

6
(
    axis
    {
        type            empty;
        inGroups        1(empty);
        nFaces          0;
        startFace       15691;
    }
    inlet
    {
        type            patch;
        nFaces          50;
        startFace       15691;
    }
    wall
    {
        type            wall;
        inGroups        1(wall);
        nFaces          159;
        startFace       15741;
    }
    outlet
    {
        type            patch;
        nFaces          50;
        startFace       15900;
    }
    front
    {
        type            wedge;
        inGroups        1(wedge);
        nFaces          7950;
        startFace       15950;
    }
    back
    {
        type            wedge;
        inGroups        1(wedge);
        nFaces          7950;
        startFace       23900;
    }
)

// ************************************************************************* //
